2_Simulation_with_lines_losses/ACN_Infrastructure_VLN.Txt

SYMMETRICAL COMPONENT VOLTAGES BY BUS (for 3-phase buses)

Bus                Mag:   V1 (kV)    p.u.     V2 (kV)   %V2/V1    V0 (kV)    %V0/V1

utility_company       5.774      48.08  2.821E-009  4.887E-008 3.756E-010 6.505E-009
main_switch_panel    0.1599      1.332  7.815E-011  4.887E-008 1.04E-011 6.505E-009
dcfc                 0.1599      1.332  7.815E-011  4.887E-008 1.04E-011 6.505E-009
switch_panel_1      0.06928     0.5769  3.588E-011  5.179E-008 1.108E-017 1.599E-014
1                   0.06928     0.5769  3.588E-011  5.179E-008 1.188E-016 1.715E-013
9                   0.06928     0.5769  3.588E-011  5.179E-008 6.778E-017 9.784E-014
2x19                0.06928     0.5769  3.588E-011  5.179E-008 1.649E-016 2.38E-013
2                   0.06928     0.5769  3.588E-011  5.179E-008 1.193E-016 1.722E-013
3                   0.06928     0.5769  3.588E-011  5.179E-008 1.775E-016 2.562E-013
5                   0.06928     0.5769  3.588E-011  5.179E-008 2.055E-016 2.966E-013
7                   0.06928     0.5769  3.588E-011  5.179E-008 1.918E-016 2.769E-013
4                   0.06928     0.5769  3.588E-011  5.179E-008 1.771E-016 2.556E-013
6                   0.06928     0.5769  3.588E-011  5.179E-008 2.079E-016 3.001E-013
8                   0.06928     0.5769  3.588E-011  5.179E-008 2.015E-016 2.909E-013
10                  0.06928     0.5769  3.588E-011  5.179E-008 7.012E-017 1.012E-013
11                  0.06928     0.5769  3.588E-011  5.179E-008 1.19E-016 1.718E-013
12                  0.06928     0.5769  3.588E-011  5.179E-008 1.168E-016 1.686E-013
13                  0.06928     0.5769  3.588E-011  5.179E-008 1.448E-016 2.09E-013
14                  0.06928     0.5769  3.588E-011  5.179E-008 1.332E-016 1.922E-013
15                  0.06928     0.5769  3.588E-011  5.179E-008 1.32E-016 1.905E-013
16                  0.06928     0.5769  3.588E-011  5.179E-008 1.366E-016 1.971E-013
39                  0.06928     0.5769  3.588E-011  5.179E-008 2.396E-016 3.458E-013
17                  0.06928     0.5769  3.588E-011  5.179E-008 2.535E-016 3.659E-013
18                  0.06928     0.5769  3.588E-011  5.179E-008 2.683E-016 3.872E-013
19                  0.06928     0.5769  3.588E-011  5.179E-008 2.722E-016 3.928E-013
20                  0.06928     0.5769  3.588E-011  5.179E-008 2.773E-016 4.003E-013
21                  0.06928     0.5769  3.588E-011  5.179E-008 3.389E-016 4.891E-013
25                  0.06928     0.5769  3.588E-011  5.179E-008 3.702E-016 5.343E-013
29                  0.06928     0.5769  3.588E-011  5.179E-008 4.015E-016 5.794E-013
33                  0.06928     0.5769  3.588E-011  5.179E-008 4.246E-016 6.129E-013
22                  0.06928     0.5769  3.588E-011  5.179E-008 3.475E-016 5.015E-013
23                  0.06928     0.5769  3.588E-011  5.179E-008 3.659E-016 5.281E-013
24                  0.06928     0.5769  3.588E-011  5.179E-008 3.763E-016 5.431E-013
26                  0.06928     0.5769  3.588E-011  5.179E-008 3.833E-016 5.532E-013
27                  0.06928     0.5769  3.588E-011  5.179E-008 3.896E-016 5.624E-013
28                  0.06928     0.5769  3.588E-011  5.179E-008 3.828E-016 5.525E-013
30                  0.06928     0.5769  3.588E-011  5.179E-008 4.246E-016 6.129E-013
31                  0.06928     0.5769  3.588E-011  5.179E-008 4.365E-016 6.301E-013
32                  0.06928     0.5769  3.588E-011  5.179E-008 4.258E-016 6.147E-013
34                  0.06928     0.5769  3.588E-011  5.179E-008 4.365E-016 6.301E-013
35                  0.06928     0.5769  3.588E-011  5.179E-008 4.258E-016 6.147E-013
38                  0.06928     0.5769  3.588E-011  5.179E-008 3.166E-016 4.569E-013
37                  0.06928     0.5769  3.588E-011  5.179E-008 4.124E-016 5.953E-013
36                  0.06928     0.5769  3.588E-011  5.179E-008 4.934E-016 7.121E-013
40                  0.06928     0.5769  3.588E-011  5.179E-008 5.915E-016 8.537E-013
44                  0.06928     0.5769  3.588E-011  5.179E-008 6.352E-016 9.168E-013
48                  0.06928     0.5769  3.589E-011  5.179E-008 6.605E-016 9.533E-013
52                  0.06928     0.5769  3.589E-011  5.179E-008 6.808E-016 9.826E-013
41                  0.06928     0.5769  3.588E-011  5.179E-008 6.042E-016 8.72E-013
42                  0.06928     0.5769  3.588E-011  5.179E-008 6.168E-016 8.902E-013
43                  0.06928     0.5769  3.588E-011  5.179E-008 6.117E-016 8.828E-013
45                  0.06928     0.5769  3.588E-011  5.179E-008 6.566E-016 9.478E-013
46                  0.06928     0.5769  3.588E-011  5.179E-008 6.62E-016 9.555E-013
47                  0.06928     0.5769  3.588E-011  5.179E-008 6.677E-016 9.637E-013
53                  0.06928     0.5769  3.589E-011  5.179E-008 6.816E-016 9.838E-013
54                  0.06928     0.5769  3.589E-011  5.179E-008 6.738E-016 9.725E-013
49                  0.06928     0.5769  3.589E-011  5.179E-008 6.808E-016 9.826E-013
50                  0.06928     0.5769  3.589E-011  5.179E-008 6.816E-016 9.838E-013
51                  0.06928     0.5769  3.589E-011  5.179E-008 6.738E-016 9.725E-013
switch_panel_2      0.06928     0.5769  3.588E-011  5.179E-008 8.585E-018 1.239E-014
